Version 4
SHEET 1 2996 680
WIRE 1696 -224 1456 -224
WIRE 1936 -224 1776 -224
WIRE 1984 -224 1936 -224
WIRE 1984 -160 1984 -224
WIRE 1984 -160 1744 -160
WIRE 1744 -96 1744 -160
WIRE 1792 -96 1744 -96
WIRE 1984 -80 1984 -160
WIRE 1984 -80 1888 -80
WIRE 1456 -64 1456 -224
WIRE 1456 -64 1392 -64
WIRE 1520 -64 1456 -64
WIRE 1680 -64 1584 -64
WIRE 1792 -64 1680 -64
WIRE 1680 -32 1680 -64
WIRE 1680 64 1680 48
WIRE 656 96 512 96
WIRE 720 96 656 96
WIRE 864 96 800 96
WIRE 912 96 864 96
WIRE 928 96 912 96
WIRE 1008 96 992 96
WIRE 2352 96 2352 32
WIRE 2416 96 2352 96
WIRE 2416 112 2416 96
WIRE 2480 112 2416 112
WIRE 2656 112 2560 112
WIRE 656 128 656 96
WIRE 864 128 864 96
WIRE 1072 128 1072 96
WIRE 1696 128 1424 128
WIRE 1968 128 1776 128
WIRE 2016 128 1968 128
WIRE 2352 128 2352 96
WIRE 2016 176 2016 128
WIRE 2016 176 1744 176
WIRE 512 192 512 96
WIRE 656 208 656 192
WIRE 864 208 864 192
WIRE 864 208 656 208
WIRE 656 224 656 208
WIRE 1072 224 1072 208
WIRE 2512 240 2512 224
WIRE 1744 256 1744 176
WIRE 1792 256 1744 256
WIRE 1808 256 1792 256
WIRE 2416 256 2416 112
WIRE 2480 256 2416 256
WIRE 512 272 512 192
WIRE 2016 272 2016 176
WIRE 2016 272 1888 272
WIRE 2656 272 2656 112
WIRE 2656 272 2544 272
WIRE 1424 288 1424 128
WIRE 1424 288 1344 288
WIRE 1472 288 1424 288
WIRE 1664 288 1536 288
WIRE 1792 288 1664 288
WIRE 2432 288 2352 288
WIRE 2480 288 2432 288
WIRE 1664 320 1664 288
WIRE 2432 368 2432 288
WIRE 2512 368 2512 304
WIRE 2592 368 2512 368
WIRE 512 384 512 352
WIRE -96 400 -96 368
WIRE 16 400 16 368
WIRE 2592 400 2592 368
WIRE 1664 416 1664 400
FLAG 512 384 0
FLAG 16 400 0
FLAG 16 288 phase_2_transmit
FLAG 512 192 "Vgrid"
FLAG 1328 -64 "Vgrid"
FLAG -96 288 5
FLAG -96 400 0
FLAG 1824 -32 0
FLAG 1824 -128 5
FLAG 1680 64 0
FLAG 1280 288 phase_2_transmit
FLAG 1664 416 0
FLAG 1824 320 0
FLAG 1824 224 5
FLAG 2512 224 5
FLAG 1936 -224 phase_1
FLAG 1968 128 phase_2
FLAG 2272 32 phase_1
FLAG 2592 400 0
FLAG 2272 288 5
FLAG 2272 128 phase_2
FLAG 656 224 0
FLAG 1072 224 0
SYMBOL voltage 512 256 R0
WINDOW 123 0 0 Left 0
WINDOW 39 0 0 Left 0
SYMATTR InstName "Vgrid"
SYMATTR Value PULSE(10 15 0 0 0 0.016 0.05 60)
SYMBOL voltage 16 272 R0
WINDOW 123 0 0 Left 0
WINDOW 39 0 0 Left 0
SYMATTR InstName phase_2_transmit
SYMATTR Value PULSE(0 5 0.017 0 0 0.016 0.05 60)
SYMBOL cap 1392 -80 R90
WINDOW 0 0 32 VBottom 2
WINDOW 3 32 32 VTop 2
SYMATTR InstName C2
SYMATTR Value 20µ
SYMBOL cap 1584 -80 R90
WINDOW 0 0 32 VBottom 2
WINDOW 3 32 32 VTop 2
SYMATTR InstName C3
SYMATTR Value 20µ
SYMBOL res 1792 -240 R90
WINDOW 0 0 56 VBottom 2
WINDOW 3 32 56 VTop 2
SYMATTR InstName R1
SYMATTR Value 39.1k
SYMBOL OpAmps\\LT6020 1840 -80 R0
SYMATTR InstName U1
SYMBOL res 1664 -48 R0
SYMATTR InstName R2
SYMATTR Value 266k
SYMBOL voltage -96 272 R0
WINDOW 123 0 0 Left 0
WINDOW 39 0 0 Left 0
SYMATTR InstName V1
SYMATTR Value 5
SYMBOL cap 1344 272 R90
WINDOW 0 0 32 VBottom 2
WINDOW 3 32 32 VTop 2
SYMATTR InstName C4
SYMATTR Value 20µ
SYMBOL cap 1536 272 R90
WINDOW 0 0 32 VBottom 2
WINDOW 3 32 32 VTop 2
SYMATTR InstName C5
SYMATTR Value 20µ
SYMBOL res 1648 304 R0
SYMATTR InstName R5
SYMATTR Value 266k
SYMBOL res 1792 112 R90
WINDOW 0 0 56 VBottom 2
WINDOW 3 32 56 VTop 2
SYMATTR InstName R6
SYMATTR Value 39.1k
SYMBOL OpAmps\\LT6020 1840 272 R0
SYMATTR InstName U2
SYMBOL res 2368 272 R90
WINDOW 0 0 56 VBottom 2
WINDOW 3 32 56 VTop 2
SYMATTR InstName R7
SYMATTR Value 10k
SYMBOL res 2576 96 R90
WINDOW 0 0 56 VBottom 2
WINDOW 3 32 56 VTop 2
SYMATTR InstName R8
SYMATTR Value 10k
SYMBOL res 2368 16 R90
WINDOW 0 0 56 VBottom 2
WINDOW 3 32 56 VTop 2
SYMATTR InstName R9
SYMATTR Value 10k
SYMBOL res 2368 112 R90
WINDOW 0 0 56 VBottom 2
WINDOW 3 32 56 VTop 2
SYMATTR InstName R10
SYMATTR Value 10k
SYMBOL res 2528 352 R90
WINDOW 0 0 56 VBottom 2
WINDOW 3 32 56 VTop 2
SYMATTR InstName R11
SYMATTR Value 6.5k
SYMBOL OpAmps\\OP07 2512 208 R0
SYMATTR InstName U3
SYMBOL cap 640 128 R0
SYMATTR InstName C1
SYMATTR Value 940µ
SYMBOL res 1056 112 R0
SYMATTR InstName R3
SYMATTR Value 60
SYMBOL ind 816 80 R90
WINDOW 0 5 56 VBottom 2
WINDOW 3 32 56 VTop 2
SYMATTR InstName L1
SYMATTR Value 1.5
SYMBOL cap 848 128 R0
SYMATTR InstName C6
SYMATTR Value 940µ
SYMBOL ind 1008 80 R90
WINDOW 0 5 56 VBottom 2
WINDOW 3 32 56 VTop 2
SYMATTR InstName L2
SYMATTR Value 0.3
SYMBOL schottky 1008 112 R270
WINDOW 0 32 32 VTop 2
WINDOW 3 0 32 VBottom 2
SYMATTR InstName D1
SYMATTR Value 1N5817
SYMATTR Description Diode
SYMATTR Type diode
TEXT 468 408 Left 2 !.tran 3
